/*--------------------------------*- C++ -*----------------------------------*\
  =========                 |
  \\      /  F ield         | OpenFOAM: The Open Source CFD Toolbox
   \\    /   O peration     | Website:  https://openfoam.org
    \\  /    A nd           | Version:  10
     \\/     M anipulation  |
\*---------------------------------------------------------------------------*/
FoamFile
{
    format      ascii;
    class       dictionary;
    object      blockMeshDict;
}
// * * * * * * * * * * * * * * * * * * * * * * * * * * * * * * * * * * * * * //

convertToMeters 0.001;

vertices
(
    (-20.6 0 -0.5)
    (-20.6 25.4 -0.5)
    (0 -25.4 -0.5)
    (0 0 -0.5)
    (0 25.4 -0.5)
    (206 -25.4 -0.5)
    (206 0 -0.5)
    (206 25.4 -0.5)
 

    (-20.6 0 0.5)
    (-20.6 25.4 0.5)
    (0 -25.4 0.5)
    (0 0 0.5)
    (0 25.4 0.5)
    (206 -25.4 0.5)
    (206 0 0.5)
    (206 25.4 0.5)

);

negY
(
    (2 4 1)
    (1 3 0.3)
);

posY
(
    (1 4 2)
    (2 3 4)
    (2 4 0.25)
);

posYR
(
    (2 1 1)
    (1 1 0.25)
);


blocks
(
    hex (0 3 4 1 8 11 12 9)
    (18 30 1)
    simpleGrading (0.5 $posY 1)

    hex (2 5 6 3 10 13 14 11)
    (130 27 1)
    edgeGrading (4 4 4 4 $negY 1 1 $negY 1 1 1 1)

    hex (3 6 7 4 11 14 15 12)
    (130 30 1)
    edgeGrading (4 4 4 4 $posY $posYR $posYR $posY 1 1 1 1)

    
);

boundary
(
    inlet
    {
        type patch;
        faces
        (
            (0 1 9 8)
        );
    }
    outlet
    {
        type patch;
        faces
        (
            (5 6 14 13)
            (6 7 15 14)
        );
    }
    upperWall
    {
        type wall;
        faces
        (
            (1 4 12 9)
            (4 7 15 12)
        );
    }
    lowerWall
    {
        type wall;
        faces
        (
            (0 3 11 8)
            (3 2 10 11)
            (2 5 13 10)
        );
    }
    frontAndBack
    {
        type empty;
        faces
        (
             (0 3 4 1)
            (2 5 6 3)
            (3 6 7 4)
           
            (8 11 12 9)
            (10 13 14 11)
            (11 14 15 12)
        );
    }
);

// ************************************************************************* //
