/*--------------------------------*- C++ -*----------------------------------*\
  =========                 |
  \\      /  F ield         | OpenFOAM: The Open Source CFD Toolbox
   \\    /   O peration     | Website:  https://openfoam.org
    \\  /    A nd           | Version:  6
     \\/     M anipulation  |
\*---------------------------------------------------------------------------*/
FoamFile
{
    version     2.0;
    format      ascii;
    class       volScalarField;
    object      km;
}
// * * * * * * * * * * * * * * * * * * * * * * * * * * * * * * * * * * * * * //
#include "INLET"

dimensions      [0 2 -2 0 0 0 0];
internalField   uniform $k;

boundaryField
{
    inlet
    {
        type            fixedValue;
        value           $internalField;
    }

    outlet
    {
        type            inletOutlet;
        phi             phim;
        inletValue      $internalField;
        value           $internalField;
    }

    walls
    {
        type            zeroGradient;
        value           $internalField;
    }

    frontandback
    {
        type            empty;
    }
}

// ************************************************************************* //
