/*--------------------------------*- C++ -*----------------------------------*\
| =========                 |                                                 |
| \\      /  F ield         | OpenFOAM: The Open Source CFD Toolbox           |
|  \\    /   O peration     | Version:  4.x                                   |
|   \\  /    A nd           | Web:      www.OpenFOAM.org                      |
|    \\/     M anipulation  |                                                 |
\*---------------------------------------------------------------------------*/
FoamFile
{
    version     2.0;
    format      ascii;
    class       dictionary;
    object      blockMeshDict;
}
// * * * * * * * * * * * * * * * * * * * * * * * * * * * * * * * * * * * * * //

convertToMeters 1;

vertices
(
    (-0.0127 0 0)
    (0.0127 0 0)
    (0.0127 2 0)
    (-0.0127 2 0)
    (-0.0127 0 0.001)
    (0.0127 0 0.001)
    (0.0127 2 0.001)
    (-0.0127 2 0.001)
);

blocks
(
    hex (0 1 2 3 4 5 6 7) (25 150 1) 
	simpleGrading 
	(
		(
			(0.25 0.3 2)
			(0.5 0.4 1)
			(0.25 0.3 0.5)
		)
		1 
		1
	)
);

edges
(
);

boundary
(
	inlet
    {
        type patch;
        faces
        (
			(1 5 4 0)
        );
    }
    outlet
    {
        type patch;
        faces
        (
			(3 7 6 2)
        );
    }
    wallLeft
    {
        type wall;
		inGroup walls;
        faces
        (
			(0 4 7 3)
        );
    }
	wallRight
    {
        type wall;
		inGroup walls;
        faces
        (
            (2 6 5 1)
        );
    }
);

mergePatchPairs
(
);

// ************************************************************************* //
