/*--------------------------------*- C++ -*----------------------------------*\
| =========                 |                                                 |
| \\      /  F ield         | OpenFOAM: The Open Source CFD Toolbox           |
|  \\    /   O peration     | Version:  4.x                                   |
|   \\  /    A nd           | Web:      www.OpenFOAM.org                      |
|    \\/     M anipulation  |                                                 |
\*---------------------------------------------------------------------------*/
FoamFile
{
    version     2.0;
    format      ascii;
    class       dictionary;
    location    "system";
    object      controlDict;
}
// * * * * * * * * * * * * * * * * * * * * * * * * * * * * * * * * * * * * * //

application     reactingTwoPhaseEulerFoam;

startFrom       latestTime;

startTime       0;

stopAt          endTime;

endTime         250;

deltaT          0.001;

writeControl    adjustableRunTime;

writeInterval   0.5;

purgeWrite      0;

writeFormat     binary;

writePrecision  16;

writeCompression uncompressed;

timeFormat      general;

timePrecision   6;

runTimeModifiable yes;

adjustTimeStep  yes;

maxCo           0.3;

maxUrCo         0.9;

maxDeltaT       1;


functions
{
    fieldAverage1
    {
        type            fieldAverage;
        libs            ("libfieldFunctionObjects.so");
        timeStart       40;
        writeControl    writeTime;
        fields
        (
            U.water
            {
                 mean        on;
                 prime2Mean  off;
                 base        time;
            }

            alpha.air
            {
                 mean        on;
                 prime2Mean  off;
                 base        time;
            }
        );
    }
}




// ************************************************************************* //
