/*--------------------------------*- C++ -*----------------------------------*\
| =========                 |                                                 |
| \\      /  F ield         | OpenFOAM: The Open Source CFD Toolbox           |
|  \\    /   O peration     | Version:  dev                                   |
|   \\  /    A nd           | Web:      www.OpenFOAM.org                      |
|    \\/     M anipulation  |                                                 |
\*---------------------------------------------------------------------------*/
FoamFile
{
    version     2.0;
    format      ascii;
    class       dictionary;
    location    "system";
    object      sample;
}
// * * * * * * * * * * * * * * * * * * * * * * * * * * * * * * * * * * * * * //

type sets;
libs            ("libsampling.so");

interpolationScheme cellPoint;

setFormat       raw;

sets
(
    H0.4
    {
        type    lineUniform;
        axis    distance;
        start   (0 0.4 0.02);
        end     (0.2 0.4 0.02);
        nPoints 100;
    }
    H0.3
    {
        type    lineUniform;
        axis    distance;
        start   (0 0.3 0.02);
        end     (0.2 0.3 0.02);
        nPoints 100;
    }
    H0.2
    {
        type    lineUniform;
        axis    distance;
        start   (0 0.2 0.02);
        end     (0.2 0.2 0.02);
        nPoints 100;
    }
);

fields
(
    alphaMean.air
    UMean.water
);



// ************************************************************************* //
